# generated using pymatgen
data_NaCdP
_symmetry_space_group_name_H-M   'P 1'
_cell_length_a   4.55047289
_cell_length_b   4.58083694
_cell_length_c   6.96267952
_cell_angle_alpha   90.00000000
_cell_angle_beta   90.00000000
_cell_angle_gamma   90.00000000
_symmetry_Int_Tables_number   1
_chemical_formula_structural   NaCdP
_chemical_formula_sum   'Na2 Cd2 P2'
_cell_volume   145.13687584
_cell_formula_units_Z   2
loop_
 _symmetry_equiv_pos_site_id
 _symmetry_equiv_pos_as_xyz
  1  'x, y, z'
loop_
 _atom_site_type_symbol
 _atom_site_label
 _atom_site_symmetry_multiplicity
 _atom_site_fract_x
 _atom_site_fract_y
 _atom_site_fract_z
 _atom_site_occupancy
  Na  Na0  1  0.00000000  0.84909723  0.92635803  1
  Na  Na1  1  0.50000000  0.34909723  0.07364197  1
  Cd  Cd2  1  -0.00000000  0.05333337  0.48193808  1
  Cd  Cd3  1  0.50000000  0.55333337  0.51806192  1
  P  P4  1  0.50000000  0.04984939  0.71690206  1
  P  P5  1  0.00000000  0.54984939  0.28309794  1
