# generated using pymatgen
data_CsKLiSb
_symmetry_space_group_name_H-M   'P 1'
_cell_length_a   7.37295924
_cell_length_b   7.37295924
_cell_length_c   7.37295924
_cell_angle_alpha   42.09653708
_cell_angle_beta   42.09653708
_cell_angle_gamma   42.09653708
_symmetry_Int_Tables_number   1
_chemical_formula_structural   CsKLiSb
_chemical_formula_sum   'Cs1 K1 Li1 Sb1'
_cell_volume   162.96574285
_cell_formula_units_Z   1
loop_
 _symmetry_equiv_pos_site_id
 _symmetry_equiv_pos_as_xyz
  1  'x, y, z'
loop_
 _atom_site_type_symbol
 _atom_site_label
 _atom_site_symmetry_multiplicity
 _atom_site_fract_x
 _atom_site_fract_y
 _atom_site_fract_z
 _atom_site_occupancy
  Cs  Cs0  1  0.92398427  0.92398427  0.92398427  1
  K  K1  1  0.72405471  0.72405471  0.72405471  1
  Li  Li2  1  0.14207522  0.14207522  0.14207522  1
  Sb  Sb3  1  0.47453984  0.47453984  0.47453984  1
