# generated using pymatgen
data_Rb4SbAu3
_symmetry_space_group_name_H-M   'P 1'
_cell_length_a   6.65344974
_cell_length_b   6.65344974
_cell_length_c   11.66632684
_cell_angle_alpha   73.41922388
_cell_angle_beta   106.58077612
_cell_angle_gamma   135.43765720
_symmetry_Int_Tables_number   1
_chemical_formula_structural   Rb4SbAu3
_chemical_formula_sum   'Rb4 Sb1 Au3'
_cell_volume   344.72185424
_cell_formula_units_Z   1
loop_
 _symmetry_equiv_pos_site_id
 _symmetry_equiv_pos_as_xyz
  1  'x, y, z'
loop_
 _atom_site_type_symbol
 _atom_site_label
 _atom_site_symmetry_multiplicity
 _atom_site_fract_x
 _atom_site_fract_y
 _atom_site_fract_z
 _atom_site_occupancy
  Rb  Rb0  1  0.24564685  0.75435315  0.34125380  1
  Rb  Rb1  1  0.47212776  0.52787224  0.09767499  1
  Rb  Rb2  1  0.84356145  0.15643855  0.81601944  1
  Rb  Rb3  1  0.08322689  0.91677311  0.62594499  1
  Sb  Sb4  1  0.15368410  0.84631590  0.96687336  1
  Au  Au5  1  0.59175845  0.40824155  0.87987933  1
  Au  Au6  1  0.55491150  0.44508850  0.40165689  1
  Au  Au7  1  0.39965527  0.60034473  0.64624721  1
