data_Sr3Ru2O7
_audit_creation_date              2023-06-24
_audit_creation_method            'Materials Studio'
_symmetry_space_group_name_H-M    ' '
_symmetry_Int_Tables_number       0
_symmetry_cell_setting            tetragonal
loop_
_symmetry_equiv_pos_as_xyz
  x,y,z
  y-z,x-z,-z
  y,y-z,-x+y
  x-z,x,x-y
  -y+z,-y,x-y
  -x,-x+z,-x+y
  -x+z,-y+z,z
  -y,-x,-z
  -x,-y,-z
  -y+z,-x+z,z
  -y,-y+z,x-y
  -x+z,-x,-x+y
  y-z,y,-x+y
  x,x-z,x-y
  x-z,y-z,-z
  y,x,z
_cell_length_a                    10.5245
_cell_length_b                    10.5245
_cell_length_c                    10.5245
_cell_angle_alpha                 158.3773
_cell_angle_beta                  158.3773
_cell_angle_gamma                 30.7663
loop_
_atom_site_label
_atom_site_type_symbol
_atom_site_fract_x
_atom_site_fract_y
_atom_site_fract_z
_atom_site_U_iso_or_equiv
_atom_site_adp_type
_atom_site_occupancy
Sr0    Sr    0.31617   0.31617  -0.00000   0.00000  Uiso   1.00
Ru2    Ru    0.09758   0.09758  -0.00000   0.00000  Uiso   1.00
O4     O     0.19570   0.19570  -0.00000   0.00000  Uiso   1.00
Sr1    Sr    0.50000   0.50000  -0.00000   0.00000  Uiso   1.00
O3     O     0.59651   0.09651   0.50000   0.00000  Uiso   1.00
O5     O     0.00000   0.00000   0.00000   0.00000  Uiso   1.00
